$ Spice netlist generated by v2lvs
$ v2019.2_14.13    Tue Apr 9 20:08:58 PDT 2019
.INCLUDE "core.spi" 
.INCLUDE "umc18_io_lvs.spi" 
*.BUSDELIMITER [ 

.SUBCKT Domain_Transfer_1_DW01_sub_0 A[31] A[30] A[29] A[28] A[27] A[26] A[25] 
+ A[24] A[23] A[22] A[21] A[20] A[19] A[18] A[17] A[16] A[15] A[14] A[13] A[12] 
+ A[11] A[10] A[9] A[8] A[7] A[6] A[5] A[4] A[3] A[2] A[1] A[0] B[31] B[30] 
+ B[29] B[28] B[27] B[26] B[25] B[24] B[23] B[22] B[21] B[20] B[19] B[18] B[17] 
+ B[16] B[15] B[14] B[13] B[12] B[11] B[10] B[9] B[8] B[7] B[6] B[5] B[4] B[3] 
+ B[2] B[1] B[0] CI DIFF[31] DIFF[30] DIFF[29] DIFF[28] DIFF[27] DIFF[26] 
+ DIFF[25] DIFF[24] DIFF[23] DIFF[22] DIFF[21] DIFF[20] DIFF[19] DIFF[18] 
+ DIFF[17] DIFF[16] DIFF[15] DIFF[14] DIFF[13] DIFF[12] DIFF[11] DIFF[10] 
+ DIFF[9] DIFF[8] DIFF[7] DIFF[6] DIFF[5] DIFF[4] DIFF[3] DIFF[2] DIFF[1] 
+ DIFF[0] CO 
XFE_OCPC465_carry_16 BUF1S $PINS O=FE_OCPN465_carry_16 I=carry[16] 
XFE_OCPC370_carry_20 BUF1S $PINS O=FE_OCPN370_carry_20 I=carry[20] 
XFE_OCPC353_carry_28 BUF1S $PINS O=FE_OCPN353_carry_28 I=carry[28] 
XFE_OCPC297_carry_9 BUF1S $PINS O=FE_OCPN297_carry_9 I=carry[9] 
XFE_OCPC291_carry_22 BUF1S $PINS O=FE_OCPN291_carry_22 I=carry[22] 
XFE_OCPC224_carry_15 BUF1S $PINS O=FE_OCPN224_carry_15 I=carry[15] 
XFE_OCPC165_carry_8 BUF1S $PINS O=FE_OCPN165_carry_8 I=carry[8] 
XFE_RC_2012_0 ND2 $PINS O=FE_RN_1363_0 I1=A[22] I2=n82 
XFE_RC_2011_0 AN2S $PINS O=FE_RN_1364_0 I1=FE_RN_1367_0 I2=FE_RN_1363_0 
XFE_RC_2010_0 XNR2HS $PINS O=FE_RN_1365_0 I1=n82 I2=A[22] 
XFE_RC_2009_0 MXL2HS $PINS OB=DIFF[22] S=FE_OCPN291_carry_22 A=FE_RN_1365_0 
+ B=FE_RN_1364_0 
XFE_RC_2008_0 ND2 $PINS O=FE_RN_1366_0 I1=A[22] I2=n82 
XFE_RC_2007_0 OR2 $PINS O=FE_RN_1367_0 I1=n82 I2=A[22] 
XFE_RC_2006_0 ND2 $PINS O=FE_RN_1368_0 I1=FE_RN_1367_0 I2=carry[22] 
XFE_RC_2005_0 ND2P $PINS O=carry[23] I1=FE_RN_1368_0 I2=FE_RN_1366_0 
XFE_RC_1877_0 ND3P $PINS O=carry[28] I1=n31 I2=n32 I3=n30 
XFE_RC_1839_0 ND2 $PINS O=FE_RN_1232_0 I1=A[23] I2=n83 
XFE_RC_1838_0 AN2S $PINS O=FE_RN_1233_0 I1=FE_RN_1236_0 I2=FE_RN_1232_0 
XFE_RC_1837_0 XNR2HS $PINS O=FE_RN_1234_0 I1=n83 I2=A[23] 
XFE_RC_1836_0 MXL2HS $PINS OB=DIFF[23] S=carry[23] A=FE_RN_1234_0 
+ B=FE_RN_1233_0 
XFE_RC_1835_0 ND2 $PINS O=FE_RN_1235_0 I1=A[23] I2=n83 
XFE_RC_1834_0 OR2 $PINS O=FE_RN_1236_0 I1=n83 I2=A[23] 
XFE_RC_1833_0 ND2 $PINS O=FE_RN_1237_0 I1=FE_RN_1236_0 I2=carry[23] 
XFE_RC_1832_0 ND2P $PINS O=carry[24] I1=FE_RN_1237_0 I2=FE_RN_1235_0 
XFE_RC_1723_0 INV1S $PINS O=FE_RN_1140_0 I=A[1] 
XFE_RC_1722_0 INV1S $PINS O=FE_RN_1141_0 I=A[1] 
XFE_RC_1721_0 ND2 $PINS O=FE_RN_1142_0 I1=FE_RN_1141_0 I2=n61 
XFE_RC_1720_0 OAI12HS $PINS O=FE_RN_1143_0 A1=FE_RN_1142_0 B1=FE_RN_1140_0 
+ B2=n61 
XFE_RC_1719_0 ND2 $PINS O=FE_RN_1144_0 I1=FE_RN_1143_0 I2=DIFF[0] 
XFE_RC_1718_0 INV1S $PINS O=FE_RN_1145_0 I=n61 
XFE_RC_1717_0 INV1S $PINS O=FE_RN_1146_0 I=A[1] 
XFE_RC_1716_0 OAI12HS $PINS O=FE_RN_1147_0 A1=FE_RN_1151_0 B1=FE_RN_1146_0 
+ B2=FE_RN_1145_0 
XFE_RC_1715_0 ND2 $PINS O=FE_RN_1148_0 I1=FE_RN_1147_0 I2=n60 
XFE_RC_1714_0 ND2 $PINS O=DIFF[1] I1=FE_RN_1148_0 I2=FE_RN_1144_0 
XFE_RC_1713_0 ND2 $PINS O=FE_RN_1149_0 I1=A[1] I2=n61 
XFE_RC_1712_0 INV1S $PINS O=FE_RN_1150_0 I=A[1] 
XFE_RC_1711_0 OR2B1 $PINS O=FE_RN_1151_0 I1=n61 B1=FE_RN_1150_0 
XFE_RC_1710_0 ND2 $PINS O=FE_RN_1152_0 I1=FE_RN_1151_0 I2=n60 
XFE_RC_1709_0 ND2P $PINS O=carry[2] I1=FE_RN_1152_0 I2=FE_RN_1149_0 
XFE_RC_1708_0 ND3P $PINS O=carry[16] I1=n21 I2=n22 I3=n20 
XFE_RC_1600_0 OR2 $PINS O=FE_RN_1061_0 I1=FE_RN_1050_0 I2=FE_RN_1057_0 
XFE_RC_1599_0 ND2P $PINS O=carry[17] I1=FE_RN_1059_0 I2=FE_RN_1061_0 
XFE_RC_1596_0 INV1S $PINS O=FE_RN_1050_0 I=n76 
XFE_RC_1595_0 INV1S $PINS O=FE_RN_1051_0 I=A[16] 
XFE_RC_1594_0 AOI22S $PINS O=FE_RN_1052_0 A1=FE_RN_1051_0 A2=n76 B1=A[16] 
+ B2=FE_RN_1050_0 
XFE_RC_1593_0 ND2S $PINS O=FE_RN_1053_0 I1=A[16] I2=n76 
XFE_RC_1592_0 ND2S $PINS O=FE_RN_1054_0 I1=FE_RN_1058_0 I2=FE_RN_1053_0 
XFE_RC_1591_0 ND2 $PINS O=FE_RN_1055_0 I1=FE_OCPN465_carry_16 I2=FE_RN_1054_0 
XFE_RC_1590_0 OAI12HS $PINS O=DIFF[16] A1=FE_RN_1055_0 B1=FE_OCPN465_carry_16 
+ B2=FE_RN_1052_0 
XFE_RC_1588_0 INV1S $PINS O=FE_RN_1057_0 I=A[16] 
XFE_RC_1587_0 OR2 $PINS O=FE_RN_1058_0 I1=n76 I2=A[16] 
XFE_RC_1586_0 ND2 $PINS O=FE_RN_1059_0 I1=FE_RN_1058_0 I2=carry[16] 
XFE_RC_1453_0 OR2 $PINS O=FE_RN_950_0 I1=FE_RN_830_0 I2=FE_RN_826_0 
XFE_RC_1452_0 ND2P $PINS O=carry[10] I1=FE_RN_832_0 I2=FE_RN_950_0 
XFE_RC_1291_0 INV1S $PINS O=FE_RN_824_0 I=FE_RN_831_0 
XFE_RC_1290_0 AOI12HS $PINS O=FE_RN_825_0 A1=FE_RN_824_0 B1=A[9] B2=n69 
XFE_RC_1289_0 INV1S $PINS O=FE_RN_826_0 I=n69 
XFE_RC_1288_0 INV1S $PINS O=FE_RN_827_0 I=A[9] 
XFE_RC_1287_0 AOI22S $PINS O=FE_RN_828_0 A1=FE_RN_827_0 A2=n69 B1=A[9] 
+ B2=FE_RN_826_0 
XFE_RC_1286_0 MXL2HS $PINS OB=DIFF[9] S=FE_OCPN297_carry_9 A=FE_RN_828_0 
+ B=FE_RN_825_0 
XFE_RC_1284_0 INV1S $PINS O=FE_RN_830_0 I=A[9] 
XFE_RC_1283_0 OR2 $PINS O=FE_RN_831_0 I1=n69 I2=A[9] 
XFE_RC_1282_0 ND2 $PINS O=FE_RN_832_0 I1=FE_RN_831_0 I2=carry[9] 
XFE_RC_1084_0 ND2S $PINS O=FE_RN_681_0 I1=A[10] I2=n70 
XFE_RC_1083_0 AN2 $PINS O=FE_RN_682_0 I1=FE_RN_685_0 I2=FE_RN_681_0 
XFE_RC_1082_0 XNR2HS $PINS O=FE_RN_683_0 I1=n70 I2=A[10] 
XFE_RC_1081_0 MXL2HS $PINS OB=DIFF[10] S=carry[10] A=FE_RN_683_0 B=FE_RN_682_0 
XFE_RC_1079_0 OR2 $PINS O=FE_RN_685_0 I1=n70 I2=A[10] 
XFE_RC_1078_0 ND2 $PINS O=FE_RN_686_0 I1=FE_RN_685_0 I2=carry[10] 
XFE_RC_1077_0 ND2P $PINS O=carry[11] I1=FE_RN_686_0 I2=FE_RN_681_0 
XFE_RC_906_0 ND2S $PINS O=FE_RN_547_0 I1=A[11] I2=n71 
XFE_RC_905_0 AN2S $PINS O=FE_RN_548_0 I1=FE_RN_551_0 I2=FE_RN_547_0 
XFE_RC_904_0 XNR2HS $PINS O=FE_RN_549_0 I1=n71 I2=A[11] 
XFE_RC_903_0 MXL2HS $PINS OB=DIFF[11] S=carry[11] A=FE_RN_549_0 B=FE_RN_548_0 
XFE_RC_901_0 OR2S $PINS O=FE_RN_551_0 I1=n71 I2=A[11] 
XFE_RC_900_0 ND2 $PINS O=FE_RN_552_0 I1=FE_RN_551_0 I2=carry[11] 
XFE_RC_899_0 ND2P $PINS O=carry[12] I1=FE_RN_552_0 I2=FE_RN_547_0 
XFE_RC_714_0 ND3P $PINS O=carry[4] I1=n29 I2=n28 I3=n27 
XFE_RC_713_0 INV1S $PINS O=FE_RN_413_0 I=n45 
XFE_RC_712_0 ND3P $PINS O=carry[6] I1=n51 I2=n50 I3=FE_RN_413_0 
XFE_RC_701_0 ND2S $PINS O=FE_RN_400_0 I1=A[17] I2=n77 
XFE_RC_700_0 AN2 $PINS O=FE_RN_401_0 I1=FE_RN_404_0 I2=FE_RN_400_0 
XFE_RC_699_0 XNR2HS $PINS O=FE_RN_402_0 I1=n77 I2=A[17] 
XFE_RC_698_0 MXL2HS $PINS OB=DIFF[17] S=carry[17] A=FE_RN_402_0 B=FE_RN_401_0 
XFE_RC_697_0 ND2S $PINS O=FE_RN_403_0 I1=A[17] I2=n77 
XFE_RC_696_0 OR2 $PINS O=FE_RN_404_0 I1=n77 I2=A[17] 
XFE_RC_695_0 ND2 $PINS O=FE_RN_405_0 I1=FE_RN_404_0 I2=carry[17] 
XFE_RC_694_0 ND2P $PINS O=carry[18] I1=FE_RN_405_0 I2=FE_RN_403_0 
XFE_RC_520_0 ND3P $PINS O=carry[3] I1=n24 I2=n25 I3=n23 
XFE_RC_517_0 ND2 $PINS O=FE_RN_270_0 I1=A[18] I2=n78 
XFE_RC_516_0 AN2 $PINS O=FE_RN_271_0 I1=FE_RN_274_0 I2=FE_RN_270_0 
XFE_RC_515_0 XNR2HS $PINS O=FE_RN_272_0 I1=n78 I2=A[18] 
XFE_RC_514_0 MXL2HS $PINS OB=DIFF[18] S=carry[18] A=FE_RN_272_0 B=FE_RN_271_0 
XFE_RC_513_0 ND2 $PINS O=FE_RN_273_0 I1=A[18] I2=n78 
XFE_RC_512_0 OR2 $PINS O=FE_RN_274_0 I1=n78 I2=A[18] 
XFE_RC_511_0 ND2 $PINS O=FE_RN_275_0 I1=FE_RN_274_0 I2=carry[18] 
XFE_RC_510_0 ND2P $PINS O=carry[19] I1=FE_RN_275_0 I2=FE_RN_273_0 
XFE_RC_298_0 ND3P $PINS O=carry[20] I1=n10 I2=n11 I3=n9 
XFE_RC_295_0 INV1S $PINS O=FE_RN_125_0 I=FE_RN_133_0 
XFE_RC_294_0 AOI12HS $PINS O=FE_RN_126_0 A1=FE_RN_125_0 B1=A[6] B2=n66 
XFE_RC_293_0 INV1S $PINS O=FE_RN_127_0 I=n66 
XFE_RC_292_0 INV1S $PINS O=FE_RN_128_0 I=A[6] 
XFE_RC_291_0 AOI22S $PINS O=FE_RN_129_0 A1=FE_RN_128_0 A2=n66 B1=A[6] 
+ B2=FE_RN_127_0 
XFE_RC_290_0 MXL2HS $PINS OB=DIFF[6] S=carry[6] A=FE_RN_129_0 B=FE_RN_126_0 
XFE_RC_289_0 ND2 $PINS O=FE_RN_130_0 I1=A[6] I2=n66 
XFE_RC_287_0 INV1S $PINS O=FE_RN_132_0 I=A[6] 
XFE_RC_286_0 ND2 $PINS O=FE_RN_133_0 I1=FE_RN_132_0 I2=FE_RN_127_0 
XFE_RC_285_0 ND2 $PINS O=FE_RN_134_0 I1=FE_RN_133_0 I2=carry[6] 
XFE_RC_284_0 ND2P $PINS O=carry[7] I1=FE_RN_134_0 I2=FE_RN_130_0 
XFE_RC_145_0 INV1S $PINS O=FE_RN_45_0 I=n37 
XFE_RC_144_0 ND3 $PINS O=carry[9] I1=n43 I2=n44 I3=FE_RN_45_0 
XFE_RC_129_0 ND3P $PINS O=carry[15] I1=n18 I2=n17 I3=n16 
XFE_RC_128_0 ND3P $PINS O=carry[21] I1=n14 I2=n15 I3=n13 
XFE_RC_119_0 ND3P $PINS O=carry[5] I1=n48 I2=n47 I3=n46 
XFE_OFC285_raw_prime_3 INV1S $PINS O=n63 I=B[3] 
XFE_OFC269_n310 INV1S $PINS O=n60 I=B[0] 
XFE_OFC212_raw_prime_5 INV1S $PINS O=n65 I=B[5] 
XFE_OFC197_raw_prime_9 INV1S $PINS O=n69 I=B[9] 
XFE_OFC161_raw_prime_7 INV1S $PINS O=n67 I=B[7] 
XFE_OFC147_raw_prime_6 INV1S $PINS O=n66 I=B[6] 
XFE_OFC105_n312 INV2 $PINS O=n61 I=B[1] 
XFE_OFC89_raw_prime_4 INV1S $PINS O=n64 I=B[4] 
XU2_26 FA1 $PINS S=DIFF[26] CO=carry[27] A=A[26] B=n86 CI=carry[26] 
XU2_25 FA1 $PINS S=DIFF[25] CO=carry[26] A=A[25] B=n85 CI=carry[25] 
XU2_24 FA1 $PINS S=DIFF[24] CO=carry[25] A=A[24] B=n84 CI=carry[24] 
XU2_21 FA1 $PINS S=DIFF[21] CO=carry[22] A=A[21] B=n81 CI=carry[21] 
XU1 ND2 $PINS O=n8 I1=n73 I2=A[13] 
XU3 XOR3 $PINS O=DIFF[14] I1=A[14] I2=n74 I3=carry[14] 
XU4 XOR3 $PINS O=DIFF[12] I1=n72 I2=A[12] I3=carry[12] 
XU5 ND2 $PINS O=n1 I1=carry[12] I2=n72 
XU6 ND2 $PINS O=n2 I1=carry[12] I2=A[12] 
XU7 ND2 $PINS O=n3 I1=n72 I2=A[12] 
XU8 ND3P $PINS O=carry[13] I1=n1 I2=n2 I3=n3 
XU9 ND2P $PINS O=n6 I1=carry[13] I2=n73 
XU10 ND2P $PINS O=n4 I1=n6 I2=n8 
XU11 ND2P $PINS O=carry[14] I1=n7 I2=n5 
XU12 INV2CK $PINS O=n5 I=n4 
XU13 ND2S $PINS O=n7 I1=carry[13] I2=A[13] 
XU14 INV1S $PINS O=n38 I=A[31] 
XU15 ND2 $PINS O=n9 I1=A[19] I2=n79 
XU16 ND2 $PINS O=n23 I1=A[2] I2=B[2] 
XU17 ND2 $PINS O=n39 I1=A[7] I2=n67 
XU18 ND2 $PINS O=n16 I1=A[14] I2=n74 
XU19 ND2 $PINS O=n30 I1=A[27] I2=n87 
XU22 XOR3 $PINS O=DIFF[4] I1=A[4] I2=n64 I3=carry[4] 
XU23 XOR3 $PINS O=DIFF[7] I1=A[7] I2=n67 I3=carry[7] 
XU24 XOR3 $PINS O=DIFF[19] I1=A[19] I2=n79 I3=carry[19] 
XU25 XOR3 $PINS O=DIFF[29] I1=A[29] I2=n89 I3=carry[29] 
XU26 XOR3 $PINS O=DIFF[27] I1=A[27] I2=n87 I3=carry[27] 
XU27 XOR3 $PINS O=DIFF[2] I1=A[2] I2=B[2] I3=carry[2] 
XU28 XOR3 $PINS O=DIFF[13] I1=n73 I2=A[13] I3=carry[13] 
XU31 ND3P $PINS O=carry[8] I1=n41 I2=n40 I3=n39 
XU32 ND2 $PINS O=n10 I1=A[19] I2=carry[19] 
XU33 ND2 $PINS O=n11 I1=n79 I2=carry[19] 
XU35 XOR2HS $PINS O=n12 I1=A[20] I2=n80 
XU36 XOR2HS $PINS O=DIFF[20] I1=n12 I2=FE_OCPN370_carry_20 
XU37 ND2S $PINS O=n13 I1=A[20] I2=n80 
XU38 ND2 $PINS O=n14 I1=A[20] I2=carry[20] 
XU39 ND2 $PINS O=n15 I1=n80 I2=carry[20] 
XU41 ND2 $PINS O=n17 I1=A[14] I2=carry[14] 
XU42 ND2 $PINS O=n18 I1=n74 I2=carry[14] 
XU44 XOR2HS $PINS O=n19 I1=A[15] I2=n75 
XU45 XOR2HS $PINS O=DIFF[15] I1=n19 I2=FE_OCPN224_carry_15 
XU46 ND2S $PINS O=n20 I1=A[15] I2=n75 
XU47 ND2 $PINS O=n21 I1=A[15] I2=carry[15] 
XU48 ND2 $PINS O=n22 I1=n75 I2=carry[15] 
XU50 ND2 $PINS O=n24 I1=A[2] I2=carry[2] 
XU51 ND2 $PINS O=n25 I1=B[2] I2=carry[2] 
XU52 XOR2HS $PINS O=n26 I1=A[3] I2=n63 
XU53 XOR2HS $PINS O=DIFF[3] I1=n26 I2=carry[3] 
XU54 ND2 $PINS O=n27 I1=A[3] I2=n63 
XU55 ND2 $PINS O=n28 I1=A[3] I2=carry[3] 
XU56 ND2 $PINS O=n29 I1=n63 I2=carry[3] 
XU58 ND2 $PINS O=n31 I1=A[27] I2=carry[27] 
XU59 ND2 $PINS O=n32 I1=n87 I2=carry[27] 
XU60 XOR2HS $PINS O=n33 I1=A[28] I2=n88 
XU61 XOR2HS $PINS O=DIFF[28] I1=n33 I2=FE_OCPN353_carry_28 
XU62 ND2S $PINS O=n34 I1=A[28] I2=n88 
XU63 ND2 $PINS O=n35 I1=A[28] I2=carry[28] 
XU64 ND2 $PINS O=n36 I1=n88 I2=carry[28] 
XU65 ND3P $PINS O=carry[29] I1=n35 I2=n36 I3=n34 
XU67 AN2 $PINS O=n37 I1=A[8] I2=B[8] 
XU68 XOR3 $PINS O=DIFF[31] I1=n38 I2=B[31] I3=carry[31] 
XU69 ND2 $PINS O=n40 I1=A[7] I2=carry[7] 
XU70 ND2 $PINS O=n41 I1=n67 I2=carry[7] 
XU71 XOR2HS $PINS O=n42 I1=A[8] I2=B[8] 
XU72 XOR2HS $PINS O=DIFF[8] I1=n42 I2=FE_OCPN165_carry_8 
XU73 ND2 $PINS O=n43 I1=A[8] I2=carry[8] 
XU74 ND2 $PINS O=n44 I1=B[8] I2=carry[8] 
XU76 AN2 $PINS O=n45 I1=A[5] I2=n65 
XU77 ND2 $PINS O=n52 I1=A[29] I2=n89 
XU78 ND2 $PINS O=n46 I1=A[4] I2=n64 
XU79 ND2 $PINS O=n47 I1=carry[4] I2=A[4] 
XU80 ND2 $PINS O=n48 I1=n64 I2=carry[4] 
XU82 XOR2HS $PINS O=n49 I1=A[5] I2=n65 
XU83 XOR2HS $PINS O=DIFF[5] I1=n49 I2=carry[5] 
XU84 ND2 $PINS O=n50 I1=A[5] I2=carry[5] 
XU85 ND2 $PINS O=n51 I1=n65 I2=carry[5] 
XU86 ND2 $PINS O=n53 I1=carry[29] I2=A[29] 
XU87 ND2 $PINS O=n54 I1=n89 I2=carry[29] 
XU88 ND3P $PINS O=carry[30] I1=n54 I2=n53 I3=n52 
XU89 XOR2HS $PINS O=n55 I1=A[30] I2=n90 
XU90 XOR2HS $PINS O=DIFF[30] I1=n55 I2=carry[30] 
XU91 ND2S $PINS O=n56 I1=A[30] I2=n90 
XU92 ND2 $PINS O=n57 I1=A[30] I2=carry[30] 
XU93 ND2 $PINS O=n58 I1=carry[30] I2=n90 
XU94 ND3 $PINS O=carry[31] I1=n56 I2=n57 I3=n58 
XU96 INV1S $PINS O=DIFF[0] I=n60 
XU97 INV1S $PINS O=n81 I=B[21] 
XU98 INV1S $PINS O=n73 I=B[13] 
XU99 INV1S $PINS O=n89 I=B[29] 
XU100 INV1S $PINS O=n77 I=B[17] 
XU101 INV1S $PINS O=n83 I=B[23] 
XU102 INV1S $PINS O=n79 I=B[19] 
XU103 INV1S $PINS O=n75 I=B[15] 
XU104 INV1S $PINS O=n87 I=B[27] 
XU105 INV1S $PINS O=n85 I=B[25] 
XU106 INV1S $PINS O=n71 I=B[11] 
XU110 INV1S $PINS O=n88 I=B[28] 
XU111 INV1S $PINS O=n86 I=B[26] 
XU112 INV1S $PINS O=n84 I=B[24] 
XU113 INV1S $PINS O=n82 I=B[22] 
XU114 INV1S $PINS O=n80 I=B[20] 
XU115 INV1S $PINS O=n78 I=B[18] 
XU116 INV1S $PINS O=n76 I=B[16] 
XU117 INV1S $PINS O=n74 I=B[14] 
XU118 INV1S $PINS O=n72 I=B[12] 
XU119 INV1S $PINS O=n90 I=B[30] 
XU120 INV1S $PINS O=n70 I=B[10] 
.ENDS

.SUBCKT Domain_Transfer_1_DW_cmp_0 A[32] A[31] A[30] A[29] A[28] A[27] A[26] 
+ A[25] A[24] A[23] A[22] A[21] A[20] A[19] A[18] A[17] A[16] A[15] A[14] A[13] 
+ A[12] A[11] A[10] A[9] A[8] A[7] A[6] A[5] A[4] A[3] A[2] A[1] A[0] B[32] 
+ B[31] B[30] B[29] B[28] B[27] B[26] B[25] B[24] B[23] B[22] B[21] B[20] B[19] 
+ B[18] B[17] B[16] B[15] B[14] B[13] B[12] B[11] B[10] B[9] B[8] B[7] B[6] 
+ B[5] B[4] B[3] B[2] B[1] B[0] TC GE_LT GE_GT_EQ GE_LT_GT_LE EQ_NE 
XFE_RC_2390_0 AO12 $PINS O=n277 A1=n286 B1=n285 B2=n287 
XU158 INV1S $PINS O=n241 I=B[18] 
XU159 INV1S $PINS O=n256 I=n316 
XU160 INV1S $PINS O=n261 I=n295 
XU161 INV1S $PINS O=n253 I=n314 
XU162 OR2 $PINS O=n340 I1=n338 I2=n229 
XU163 AO22S $PINS O=n229 A1=B[1] A2=n249 B1=B[0] B2=n341 
XU164 INV1S $PINS O=n247 I=B[29] 
XU165 INV1S $PINS O=n238 I=B[13] 
XU166 INV1S $PINS O=n234 I=B[5] 
XU167 INV1S $PINS O=n233 I=B[3] 
XU168 INV1S $PINS O=n235 I=B[7] 
XU169 INV1S $PINS O=n239 I=B[15] 
XU170 INV1S $PINS O=n248 I=B[31] 
XU171 INV1S $PINS O=n237 I=B[11] 
XU172 INV1S $PINS O=n236 I=B[9] 
XU173 INV1S $PINS O=n245 I=B[25] 
XU174 INV1S $PINS O=n246 I=B[27] 
XU175 INV1S $PINS O=n244 I=B[23] 
XU176 INV1S $PINS O=n242 I=B[19] 
XU177 INV1S $PINS O=n243 I=B[21] 
XU178 INV1S $PINS O=n240 I=B[17] 
XU179 MAOI1 $PINS O=n321 A1=B[14] A2=n230 B1=A[15] B2=n239 
XU180 AN2 $PINS O=n230 I1=n324 I2=n258 
XU181 MAOI1 $PINS O=n304 A1=B[22] A2=n231 B1=A[23] B2=n244 
XU182 AN2 $PINS O=n231 I1=n307 I2=n263 
XU183 MAOI1 $PINS O=n281 A1=B[30] A2=n232 B1=A[31] B2=n248 
XU184 AN2 $PINS O=n232 I1=n284 I2=n267 
XU185 INV1S $PINS O=n258 I=A[14] 
XU186 INV1S $PINS O=n265 I=A[26] 
XU187 INV1S $PINS O=n264 I=A[24] 
XU188 INV1S $PINS O=n255 I=A[10] 
XU189 INV1S $PINS O=n254 I=A[8] 
XU190 INV1S $PINS O=n250 I=A[2] 
XU191 INV1S $PINS O=n249 I=A[1] 
XU192 INV1S $PINS O=n257 I=A[12] 
XU193 INV1S $PINS O=n262 I=A[20] 
XU194 INV1S $PINS O=n260 I=A[18] 
XU195 INV1S $PINS O=n266 I=A[28] 
XU196 INV1S $PINS O=n259 I=A[16] 
XU197 INV1S $PINS O=n267 I=A[30] 
XU198 INV1S $PINS O=n263 I=A[22] 
XU199 INV1S $PINS O=n251 I=A[4] 
XU200 INV1S $PINS O=n252 I=A[6] 
XU201 OR2 $PINS O=GE_LT_GT_LE I1=A[32] I2=n268 
XU202 AOI13HS $PINS O=n268 A1=n272 B1=n269 B2=n270 B3=n271 
XU203 AOI22S $PINS O=n272 A1=n273 A2=n274 B1=n274 B2=n275 
XU204 AOI22S $PINS O=n274 A1=n276 A2=n277 B1=n278 B2=n279 
XU205 OAI112HS $PINS O=n279 A1=n280 B1=n281 C1=A[29] C2=n247 
XU206 ND3 $PINS O=n280 I1=n282 I2=n266 I3=B[28] 
XU207 OR2B1S $PINS O=n278 I1=n283 B1=n281 
XU209 MOAI1S $PINS O=n287 A1=A[25] A2=n245 B1=B[24] B2=n288 
XU210 AN2 $PINS O=n288 I1=n289 I2=n264 
XU211 MOAI1S $PINS O=n286 A1=A[27] A2=n246 B1=B[26] B2=n290 
XU212 AN2 $PINS O=n290 I1=n291 I2=n265 
XU213 AOI22S $PINS O=n273 A1=n292 A2=n293 B1=n294 B2=n261 
XU214 AOI22S $PINS O=n294 A1=n296 A2=n297 B1=n297 B2=n298 
XU215 OA22 $PINS O=n297 A1=A[19] A2=n242 B1=n241 B2=n299 
XU216 ND2 $PINS O=n299 I1=n300 I2=n260 
XU217 AOI13HS $PINS O=n296 A1=n302 B1=n301 B2=n259 B3=B[16] 
XU218 NR2 $PINS O=n302 I1=A[17] I2=n240 
XU219 OAI112HS $PINS O=n293 A1=n303 B1=n304 C1=A[21] C2=n243 
XU220 ND3 $PINS O=n303 I1=n305 I2=n262 I3=B[20] 
XU221 OR2B1S $PINS O=n292 I1=n306 B1=n304 
XU222 NR3 $PINS O=n271 I1=n298 I2=n295 I3=n275 
XU223 ND3 $PINS O=n275 I1=n285 I2=n276 I3=n308 
XU224 OA12 $PINS O=n308 A1=n289 B1=B[24] B2=n264 
XU225 ND2 $PINS O=n289 I1=A[25] I2=n245 
XU226 OA112 $PINS O=n276 A1=n282 B1=n283 C1=B[28] C2=n266 
XU227 OA12 $PINS O=n283 A1=n284 B1=B[30] B2=n267 
XU228 ND2 $PINS O=n284 I1=A[31] I2=n248 
XU229 ND2 $PINS O=n282 I1=A[29] I2=n247 
XU230 OA12 $PINS O=n285 A1=n291 B1=B[26] B2=n265 
XU231 ND2 $PINS O=n291 I1=A[27] I2=n246 
XU232 OAI112HS $PINS O=n295 A1=n305 B1=n306 C1=B[20] C2=n262 
XU233 OA12 $PINS O=n306 A1=n307 B1=B[22] B2=n263 
XU234 ND2 $PINS O=n307 I1=A[23] I2=n244 
XU235 ND2 $PINS O=n305 I1=A[21] I2=n243 
XU236 OAI12HS $PINS O=n298 A1=n300 B1=B[18] B2=n260 
XU237 ND2 $PINS O=n300 I1=A[19] I2=n242 
XU238 OA12 $PINS O=n270 A1=n301 B1=B[16] B2=n259 
XU239 ND2 $PINS O=n301 I1=A[17] I2=n240 
XU240 AOI13HS $PINS O=n269 A1=n311 B1=n309 B2=n310 B3=n253 
XU241 AOI13HS $PINS O=n311 A1=n314 B1=n312 B2=n256 B3=n313 
XU242 OA12 $PINS O=n313 A1=n315 B1=B[8] B2=n254 
XU243 MOAI1S $PINS O=n314 A1=n316 A2=n317 B1=n318 B2=n319 
XU244 OAI112HS $PINS O=n319 A1=n320 B1=n321 C1=A[13] C2=n238 
XU245 ND3 $PINS O=n320 I1=n322 I2=n257 I3=B[12] 
XU246 OR2B1S $PINS O=n318 I1=n323 B1=n321 
XU247 OAI22S $PINS O=n317 A1=n312 A2=n325 B1=n325 B2=n326 
XU248 MOAI1S $PINS O=n326 A1=A[9] A2=n236 B1=B[8] B2=n327 
XU249 AN2 $PINS O=n327 I1=n315 I2=n254 
XU250 ND2 $PINS O=n315 I1=A[9] I2=n236 
XU251 MOAI1S $PINS O=n325 A1=A[11] A2=n237 B1=B[10] B2=n328 
XU252 AN2 $PINS O=n328 I1=n329 I2=n255 
XU253 OA12 $PINS O=n312 A1=n329 B1=B[10] B2=n255 
XU254 ND2 $PINS O=n329 I1=A[11] I2=n237 
XU255 OAI112HS $PINS O=n316 A1=n322 B1=n323 C1=B[12] C2=n257 
XU256 OA12 $PINS O=n323 A1=n324 B1=B[14] B2=n258 
XU257 ND2 $PINS O=n324 I1=A[15] I2=n239 
XU258 ND2 $PINS O=n322 I1=A[13] I2=n238 
XU259 OAI22S $PINS O=n310 A1=n330 A2=n331 B1=n331 B2=n332 
XU260 MOAI1S $PINS O=n332 A1=A[5] A2=n234 B1=B[4] B2=n333 
XU261 AN2 $PINS O=n333 I1=n334 I2=n251 
XU262 MOAI1S $PINS O=n331 A1=A[7] A2=n235 B1=B[6] B2=n335 
XU263 AN2 $PINS O=n335 I1=n336 I2=n252 
XU264 OAI112HS $PINS O=n309 A1=n330 B1=n339 C1=n337 C2=n338 
XU265 OA112 $PINS O=n339 A1=n334 B1=n340 C1=B[4] C2=n251 
XU266 OR2 $PINS O=n341 I1=n249 I2=B[1] 
XU267 ND2 $PINS O=n334 I1=A[5] I2=n234 
XU268 OA12 $PINS O=n330 A1=n336 B1=B[6] B2=n252 
XU269 ND2 $PINS O=n336 I1=A[7] I2=n235 
XU270 MOAI1S $PINS O=n338 A1=A[3] A2=n233 B1=B[2] B2=n342 
XU271 AN2 $PINS O=n342 I1=n343 I2=n250 
XU272 OA12 $PINS O=n337 A1=n343 B1=B[2] B2=n250 
XU273 ND2 $PINS O=n343 I1=A[3] I2=n233 
.ENDS

.SUBCKT Domain_Transfer_1_DW01_sub_1 A[31] A[30] A[29] A[28] A[27] A[26] A[25] 
+ A[24] A[23] A[22] A[21] A[20] A[19] A[18] A[17] A[16] A[15] A[14] A[13] A[12] 
+ A[11] A[10] A[9] A[8] A[7] A[6] A[5] A[4] A[3] A[2] A[1] A[0] B[31] B[30] 
+ B[29] B[28] B[27] B[26] B[25] B[24] B[23] B[22] B[21] B[20] B[19] B[18] B[17] 
+ B[16] B[15] B[14] B[13] B[12] B[11] B[10] B[9] B[8] B[7] B[6] B[5] B[4] B[3] 
+ B[2] B[1] B[0] CI DIFF[31] DIFF[30] DIFF[29] DIFF[28] DIFF[27] DIFF[26] 
+ DIFF[25] DIFF[24] DIFF[23] DIFF[22] DIFF[21] DIFF[20] DIFF[19] DIFF[18] 
+ DIFF[17] DIFF[16] DIFF[15] DIFF[14] DIFF[13] DIFF[12] DIFF[11] DIFF[10] 
+ DIFF[9] DIFF[8] DIFF[7] DIFF[6] DIFF[5] DIFF[4] DIFF[3] DIFF[2] DIFF[1] 
+ DIFF[0] CO 
XFE_RC_2384_0 XNR2HS $PINS O=FE_RN_1497_0 I1=A[22] I2=n72 
XFE_RC_2328_0 XOR3 $PINS O=DIFF[25] I1=A[25] I2=n75 I3=carry[25] 
XFE_RC_2327_0 MAO222 $PINS O=carry[26] A1=A[25] B1=n75 C1=carry[25] 
XFE_RC_2323_0 INV1S $PINS O=FE_RN_1566_0 I=n41 
XFE_RC_2322_0 MXL2HS $PINS OB=DIFF[31] S=carry[31] A=n41 B=FE_RN_1566_0 
XFE_RC_2316_0 ND3P $PINS O=carry[29] I1=n22 I2=n21 I3=n20 
XFE_RC_2293_0 ND3P $PINS O=carry[28] I1=n17 I2=n18 I3=n16 
XFE_RC_2245_0 OR2 $PINS O=FE_RN_1542_0 I1=FE_RN_1499_0 I2=FE_RN_1498_0 
XFE_RC_2244_0 ND2P $PINS O=carry[23] I1=FE_RN_1501_0 I2=FE_RN_1542_0 
XFE_RC_2190_0 INV1S $PINS O=FE_RN_1493_0 I=FE_RN_1500_0 
XFE_RC_2189_0 AOI12HS $PINS O=FE_RN_1494_0 A1=FE_RN_1493_0 B1=A[22] B2=n72 
XFE_RC_2185_0 MXL2HS $PINS OB=DIFF[22] S=carry[22] A=FE_RN_1497_0 
+ B=FE_RN_1494_0 
XFE_RC_2184_0 INV1S $PINS O=FE_RN_1498_0 I=n72 
XFE_RC_2183_0 INV1S $PINS O=FE_RN_1499_0 I=A[22] 
XFE_RC_2182_0 OR2 $PINS O=FE_RN_1500_0 I1=n72 I2=A[22] 
XFE_RC_2181_0 ND2 $PINS O=FE_RN_1501_0 I1=FE_RN_1500_0 I2=carry[22] 
XFE_RC_1925_0 ND2S $PINS O=FE_RN_1298_0 I1=A[26] I2=n76 
XFE_RC_1924_0 AN2 $PINS O=FE_RN_1299_0 I1=FE_RN_1302_0 I2=FE_RN_1298_0 
XFE_RC_1923_0 XNR2HS $PINS O=FE_RN_1300_0 I1=n76 I2=A[26] 
XFE_RC_1922_0 MXL2HS $PINS OB=DIFF[26] S=carry[26] A=FE_RN_1300_0 
+ B=FE_RN_1299_0 
XFE_RC_1921_0 ND2S $PINS O=FE_RN_1301_0 I1=A[26] I2=n76 
XFE_RC_1920_0 OR2 $PINS O=FE_RN_1302_0 I1=n76 I2=A[26] 
XFE_RC_1919_0 ND2 $PINS O=FE_RN_1303_0 I1=FE_RN_1302_0 I2=carry[26] 
XFE_RC_1918_0 ND2P $PINS O=carry[27] I1=FE_RN_1303_0 I2=FE_RN_1301_0 
XFE_RC_1684_0 ND2 $PINS O=FE_RN_1116_0 I1=A[19] I2=n69 
XFE_RC_1683_0 AN2 $PINS O=FE_RN_1117_0 I1=FE_RN_1120_0 I2=FE_RN_1116_0 
XFE_RC_1682_0 XNR2HS $PINS O=FE_RN_1118_0 I1=n69 I2=A[19] 
XFE_RC_1681_0 MXL2HS $PINS OB=DIFF[19] S=carry[19] A=FE_RN_1118_0 
+ B=FE_RN_1117_0 
XFE_RC_1680_0 ND2 $PINS O=FE_RN_1119_0 I1=A[19] I2=n69 
XFE_RC_1679_0 OR2S $PINS O=FE_RN_1120_0 I1=n69 I2=A[19] 
XFE_RC_1678_0 ND2 $PINS O=FE_RN_1121_0 I1=FE_RN_1120_0 I2=carry[19] 
XFE_RC_1677_0 ND2P $PINS O=carry[20] I1=FE_RN_1121_0 I2=FE_RN_1119_0 
XFE_RC_1477_0 ND2S $PINS O=FE_RN_963_0 I1=A[20] I2=n70 
XFE_RC_1476_0 AN2 $PINS O=FE_RN_964_0 I1=FE_RN_967_0 I2=FE_RN_963_0 
XFE_RC_1475_0 XNR2HS $PINS O=FE_RN_965_0 I1=n70 I2=A[20] 
XFE_RC_1474_0 MXL2HS $PINS OB=DIFF[20] S=carry[20] A=FE_RN_965_0 B=FE_RN_964_0 
XFE_RC_1473_0 ND2S $PINS O=FE_RN_966_0 I1=A[20] I2=n70 
XFE_RC_1472_0 OR2 $PINS O=FE_RN_967_0 I1=n70 I2=A[20] 
XFE_RC_1471_0 ND2 $PINS O=FE_RN_968_0 I1=FE_RN_967_0 I2=carry[20] 
XFE_RC_1470_0 ND2P $PINS O=carry[21] I1=FE_RN_968_0 I2=FE_RN_966_0 
XFE_RC_1255_0 ND2S $PINS O=FE_RN_801_0 I1=A[23] I2=n73 
XFE_RC_1254_0 AN2 $PINS O=FE_RN_802_0 I1=FE_RN_805_0 I2=FE_RN_801_0 
XFE_RC_1253_0 XNR2HS $PINS O=FE_RN_803_0 I1=n73 I2=A[23] 
XFE_RC_1252_0 MXL2HS $PINS OB=DIFF[23] S=carry[23] A=FE_RN_803_0 B=FE_RN_802_0 
XFE_RC_1251_0 ND2S $PINS O=FE_RN_804_0 I1=A[23] I2=n73 
XFE_RC_1250_0 OR2S $PINS O=FE_RN_805_0 I1=n73 I2=A[23] 
XFE_RC_1249_0 ND2 $PINS O=FE_RN_806_0 I1=FE_RN_805_0 I2=carry[23] 
XFE_RC_1248_0 ND2P $PINS O=carry[24] I1=FE_RN_806_0 I2=FE_RN_804_0 
XFE_RC_1036_0 AN2 $PINS O=FE_RN_645_0 I1=A[3] I2=n53 
XFE_RC_1035_0 AN2B1S $PINS O=FE_RN_646_0 I1=FE_RN_649_0 B1=FE_RN_645_0 
XFE_RC_1034_0 XNR2HS $PINS O=FE_RN_647_0 I1=n53 I2=A[3] 
XFE_RC_1033_0 MXL2HS $PINS OB=DIFF[3] S=carry[3] A=FE_RN_647_0 B=FE_RN_646_0 
XFE_RC_1032_0 ND2 $PINS O=FE_RN_648_0 I1=A[3] I2=n53 
XFE_RC_1031_0 OR2 $PINS O=FE_RN_649_0 I1=n53 I2=A[3] 
XFE_RC_1030_0 ND2 $PINS O=FE_RN_650_0 I1=FE_RN_649_0 I2=carry[3] 
XFE_RC_1029_0 ND2 $PINS O=carry[4] I1=FE_RN_650_0 I2=FE_RN_648_0 
XFE_RC_798_0 INV1S $PINS O=FE_RN_467_0 I=FE_RN_471_0 
XFE_RC_797_0 AOI12HS $PINS O=FE_RN_468_0 A1=FE_RN_467_0 B1=A[9] B2=B[9] 
XFE_RC_796_0 XNR2HS $PINS O=FE_RN_469_0 I1=B[9] I2=A[9] 
XFE_RC_795_0 MXL2HS $PINS OB=DIFF[9] S=carry[9] A=FE_RN_469_0 B=FE_RN_468_0 
XFE_RC_794_0 ND2 $PINS O=FE_RN_470_0 I1=A[9] I2=B[9] 
XFE_RC_793_0 OR2 $PINS O=FE_RN_471_0 I1=B[9] I2=A[9] 
XFE_RC_792_0 ND2 $PINS O=FE_RN_472_0 I1=FE_RN_471_0 I2=carry[9] 
XFE_RC_791_0 ND2P $PINS O=carry[10] I1=FE_RN_472_0 I2=FE_RN_470_0 
XFE_RC_580_0 ND3P $PINS O=carry[25] I1=n8 I2=n7 I3=n9 
XFE_RC_579_0 ND2 $PINS O=FE_RN_311_0 I1=A[10] I2=n60 
XFE_RC_578_0 AN2 $PINS O=FE_RN_312_0 I1=FE_RN_315_0 I2=FE_RN_311_0 
XFE_RC_577_0 XNR2HS $PINS O=FE_RN_313_0 I1=n60 I2=A[10] 
XFE_RC_576_0 MXL2HS $PINS OB=DIFF[10] S=carry[10] A=FE_RN_313_0 B=FE_RN_312_0 
XFE_RC_575_0 ND2 $PINS O=FE_RN_314_0 I1=A[10] I2=n60 
XFE_RC_574_0 OR2 $PINS O=FE_RN_315_0 I1=n60 I2=A[10] 
XFE_RC_573_0 ND2 $PINS O=FE_RN_316_0 I1=FE_RN_315_0 I2=carry[10] 
XFE_RC_572_0 ND2P $PINS O=carry[11] I1=FE_RN_316_0 I2=FE_RN_314_0 
XFE_RC_374_0 INV1S $PINS O=FE_RN_170_0 I=FE_RN_174_0 
XFE_RC_373_0 AOI12HS $PINS O=FE_RN_171_0 A1=FE_RN_170_0 B1=A[7] B2=n57 
XFE_RC_372_0 XNR2HS $PINS O=FE_RN_172_0 I1=n57 I2=A[7] 
XFE_RC_371_0 MXL2HS $PINS OB=DIFF[7] S=carry[7] A=FE_RN_172_0 B=FE_RN_171_0 
XFE_RC_370_0 ND2S $PINS O=FE_RN_173_0 I1=A[7] I2=n57 
XFE_RC_369_0 OR2 $PINS O=FE_RN_174_0 I1=n57 I2=A[7] 
XFE_RC_368_0 ND2 $PINS O=FE_RN_175_0 I1=FE_RN_174_0 I2=carry[7] 
XFE_RC_367_0 ND2P $PINS O=carry[8] I1=FE_RN_175_0 I2=FE_RN_173_0 
XFE_RC_348_0 ND3P $PINS O=carry[13] I1=n32 I2=n33 I3=n31 
XFE_RC_319_0 ND3P $PINS O=carry[6] I1=n43 I2=n44 I3=n42 
XFE_RC_317_0 ND3P $PINS O=carry[9] I1=n28 I2=n29 I3=n30 
XFE_RC_316_0 ND3P $PINS O=carry[12] I1=n14 I2=n13 I3=n15 
XFE_RC_193_0 INV1S $PINS O=FE_RN_69_0 I=n23 
XFE_RC_192_0 ND3P $PINS O=carry[14] I1=n35 I2=n36 I3=FE_RN_69_0 
XFE_RC_184_0 ND3 $PINS O=carry[7] I1=n48 I2=n47 I3=n46 
XFE_RC_137_0 ND3P $PINS O=carry[15] I1=n1 I2=n2 I3=n3 
XFE_OFC277_raw_prime_3 INV1S $PINS O=n53 I=B[3] 
XFE_OFC270_n310 INV1S $PINS O=n50 I=B[0] 
XFE_OFC217_raw_prime_5 INV1S $PINS O=n55 I=B[5] 
XFE_OFC168_raw_prime_7 INV1S $PINS O=n57 I=B[7] 
XFE_OFC145_raw_prime_6 INV1S $PINS O=n56 I=B[6] 
XFE_OFC130_raw_prime_2 INV1S $PINS O=n52 I=B[2] 
XFE_OFC110_n312 INV1S $PINS O=n51 I=B[1] 
XFE_OFC95_raw_prime_4 INV1S $PINS O=n54 I=B[4] 
XU2_18 FA1 $PINS S=DIFF[18] CO=carry[19] A=A[18] B=n68 CI=carry[18] 
XU2_16 FA1 $PINS S=DIFF[16] CO=carry[17] A=A[16] B=n66 CI=carry[16] 
XU2_2 FA1 $PINS S=DIFF[2] CO=carry[3] A=A[2] B=n52 CI=carry[2] 
XU2_17 FA1 $PINS S=DIFF[17] CO=carry[18] A=A[17] B=n67 CI=carry[17] 
XU2_1 FA1 $PINS S=DIFF[1] CO=carry[2] A=A[1] B=n51 CI=n50 
XU2_15 FA1 $PINS S=DIFF[15] CO=carry[16] A=A[15] B=n65 CI=carry[15] 
XU2 XOR3 $PINS O=DIFF[5] I1=A[5] I2=n55 I3=carry[5] 
XU3 ND3P $PINS O=carry[5] I1=n10 I2=n11 I3=n12 
XU4 XOR3 $PINS O=DIFF[12] I1=A[12] I2=n62 I3=carry[12] 
XU7 ND3P $PINS O=carry[22] I1=n4 I2=n5 I3=n6 
XU9 XOR3 $PINS O=DIFF[14] I1=n64 I2=A[14] I3=carry[14] 
XU10 ND2 $PINS O=n1 I1=carry[14] I2=n64 
XU11 ND2 $PINS O=n2 I1=carry[14] I2=A[14] 
XU12 ND2 $PINS O=n3 I1=n64 I2=A[14] 
XU15 ND3P $PINS O=carry[30] I1=n25 I2=n26 I3=n27 
XU17 ND2 $PINS O=n31 I1=A[12] I2=n62 
XU18 ND2 $PINS O=n16 I1=A[27] I2=n77 
XU19 INV1S $PINS O=n80 I=B[30] 
XU20 INV1S $PINS O=n61 I=B[11] 
XU21 INV1S $PINS O=n71 I=B[21] 
XU22 ND2 $PINS O=n38 I1=carry[30] I2=n80 
XU23 ND2 $PINS O=n39 I1=carry[30] I2=A[30] 
XU24 XOR3 $PINS O=DIFF[4] I1=n54 I2=A[4] I3=carry[4] 
XU26 XOR3 $PINS O=DIFF[8] I1=B[8] I2=A[8] I3=carry[8] 
XU29 XOR3 $PINS O=DIFF[11] I1=n61 I2=A[11] I3=carry[11] 
XU30 XOR3 $PINS O=DIFF[21] I1=n71 I2=A[21] I3=carry[21] 
XU31 XOR3 $PINS O=DIFF[27] I1=A[27] I2=n77 I3=carry[27] 
XU33 ND2 $PINS O=n4 I1=carry[21] I2=n71 
XU34 ND2 $PINS O=n5 I1=carry[21] I2=A[21] 
XU35 ND2S $PINS O=n6 I1=n71 I2=A[21] 
XU36 XOR3 $PINS O=DIFF[24] I1=n74 I2=A[24] I3=carry[24] 
XU37 ND2 $PINS O=n7 I1=carry[24] I2=n74 
XU38 ND2 $PINS O=n8 I1=carry[24] I2=A[24] 
XU39 ND2 $PINS O=n9 I1=n74 I2=A[24] 
XU40 ND2 $PINS O=n10 I1=carry[4] I2=n54 
XU41 ND2 $PINS O=n11 I1=carry[4] I2=A[4] 
XU42 ND2S $PINS O=n12 I1=n54 I2=A[4] 
XU43 ND2 $PINS O=n13 I1=carry[11] I2=n61 
XU44 ND2 $PINS O=n14 I1=carry[11] I2=A[11] 
XU45 ND2S $PINS O=n15 I1=n61 I2=A[11] 
XU46 ND2 $PINS O=n17 I1=A[27] I2=carry[27] 
XU47 ND2 $PINS O=n18 I1=n77 I2=carry[27] 
XU49 XOR2HS $PINS O=n19 I1=A[28] I2=n78 
XU50 XOR2HS $PINS O=DIFF[28] I1=n19 I2=carry[28] 
XU51 ND2S $PINS O=n20 I1=A[28] I2=n78 
XU52 ND2 $PINS O=n21 I1=A[28] I2=carry[28] 
XU53 ND2 $PINS O=n22 I1=n78 I2=carry[28] 
XU55 AN2 $PINS O=n23 I1=A[13] I2=n63 
XU56 XOR2HS $PINS O=n24 I1=n79 I2=A[29] 
XU57 XOR2HS $PINS O=DIFF[29] I1=carry[29] I2=n24 
XU58 ND2 $PINS O=n25 I1=carry[29] I2=n79 
XU59 ND2 $PINS O=n26 I1=carry[29] I2=A[29] 
XU60 ND2 $PINS O=n27 I1=n79 I2=A[29] 
XU61 ND2 $PINS O=n28 I1=carry[8] I2=B[8] 
XU62 ND2 $PINS O=n29 I1=carry[8] I2=A[8] 
XU63 ND2S $PINS O=n30 I1=B[8] I2=A[8] 
XU64 ND2 $PINS O=n32 I1=A[12] I2=carry[12] 
XU65 ND2 $PINS O=n33 I1=n62 I2=carry[12] 
XU66 XOR2HS $PINS O=n34 I1=A[13] I2=n63 
XU67 XOR2HS $PINS O=DIFF[13] I1=n34 I2=carry[13] 
XU68 ND2 $PINS O=n35 I1=A[13] I2=carry[13] 
XU69 ND2 $PINS O=n36 I1=n63 I2=carry[13] 
XU70 XOR2HS $PINS O=n37 I1=n80 I2=A[30] 
XU71 XOR2HS $PINS O=DIFF[30] I1=carry[30] I2=n37 
XU72 ND2S $PINS O=n40 I1=n80 I2=A[30] 
XU73 ND3 $PINS O=carry[31] I1=n39 I2=n38 I3=n40 
XU75 XNR2HS $PINS O=n41 I1=n81 I2=A[31] 
XU76 ND2 $PINS O=n42 I1=A[5] I2=n55 
XU77 ND2 $PINS O=n43 I1=A[5] I2=carry[5] 
XU78 ND2 $PINS O=n44 I1=n55 I2=carry[5] 
XU80 XOR2HS $PINS O=n45 I1=A[6] I2=n56 
XU81 XOR2HS $PINS O=DIFF[6] I1=n45 I2=carry[6] 
XU82 ND2S $PINS O=n46 I1=A[6] I2=n56 
XU83 ND2 $PINS O=n47 I1=A[6] I2=carry[6] 
XU84 ND2 $PINS O=n48 I1=n56 I2=carry[6] 
XU85 INV1S $PINS O=DIFF[0] I=n50 
XU86 INV1S $PINS O=n63 I=B[13] 
XU87 INV1S $PINS O=n79 I=B[29] 
XU88 INV1S $PINS O=n67 I=B[17] 
XU89 INV1S $PINS O=n73 I=B[23] 
XU90 INV1S $PINS O=n69 I=B[19] 
XU91 INV1S $PINS O=n65 I=B[15] 
XU92 INV1S $PINS O=n77 I=B[27] 
XU93 INV1S $PINS O=n75 I=B[25] 
XU97 INV1S $PINS O=n78 I=B[28] 
XU98 INV1S $PINS O=n76 I=B[26] 
XU99 INV1S $PINS O=n74 I=B[24] 
XU100 INV1S $PINS O=n72 I=B[22] 
XU101 INV1S $PINS O=n70 I=B[20] 
XU102 INV1S $PINS O=n68 I=B[18] 
XU103 INV1S $PINS O=n66 I=B[16] 
XU104 INV1S $PINS O=n64 I=B[14] 
XU105 INV1S $PINS O=n62 I=B[12] 
XU106 INV1S $PINS O=n60 I=B[10] 
XU109 INV1S $PINS O=n81 I=B[31] 
.ENDS

.SUBCKT Domain_Transfer_1_DW_cmp_1 A[32] A[31] A[30] A[29] A[28] A[27] A[26] 
+ A[25] A[24] A[23] A[22] A[21] A[20] A[19] A[18] A[17] A[16] A[15] A[14] A[13] 
+ A[12] A[11] A[10] A[9] A[8] A[7] A[6] A[5] A[4] A[3] A[2] A[1] A[0] B[32] 
+ B[31] B[30] B[29] B[28] B[27] B[26] B[25] B[24] B[23] B[22] B[21] B[20] B[19] 
+ B[18] B[17] B[16] B[15] B[14] B[13] B[12] B[11] B[10] B[9] B[8] B[7] B[6] 
+ B[5] B[4] B[3] B[2] B[1] B[0] TC GE_LT GE_GT_EQ GE_LT_GT_LE EQ_NE 